
**** 04/21/22 02:41:13 ******* PSpice 17.4.0 (Nov 2018) ******* ID# 0 ********

 ** Profile: "SCHEMATIC1-PowerBlock_Sim"  [ C:\Users\student\Desktop\WCSA_SDP_2022\WCSA_OrCAD\PSPICE\PowerSystem_Simulations\powersys


 ****     CIRCUIT DESCRIPTION


******************************************************************************




** Creating circuit file "PowerBlock_Sim.cir" 
** WARNING: THIS AUTOMATICALLY GENERATED FILE MAY BE OVERWRITTEN BY SUBSEQUENT SIMULATIONS

*Libraries: 
* Profile Libraries :
* Local Libraries :
.LIB "../../../powersystem_simulations-pspicefiles/powersystem_simulations.lib" 
.LIB "../../../powersystem_simulations-pspicefiles/schematic1/powerblock_sim/sllm359/mc33063a-q1_pspice_trans/mc33063a-q1_trans.lib"
+ "" 
* From [PSPICE NETLIST] section of C:\Users\student\AppData\Roaming\SPB_Data\cdssetup\OrCAD_PSpice\17.4.0\PSpice.ini file:

ERROR(ORPSIM-16276): Simulation cannot be completed because library ../../../powersystem_simulations-pspicefiles/schematic1/powerblock_sim/sllm359/mc33063a-q1_pspice_trans/mc33063a-q1_trans.lib 
is not available.
.lib "nom.lib" 

*Analysis directives: 
.TRAN 1e-03 6 0 50m 
.OPTIONS ADVCONV
.PROBE N([N87447])
.PROBE N([N37893])
.PROBE N([N44923])
.PROBE N([N87291])
.INC "..\SCHEMATIC1.net" 



**** INCLUDING SCHEMATIC1.net ****
* source POWERSYSTEM_SIMULATIONS
R_R9         N37973 0  1.2k TC=0,0 
R_Rsc2         N37799 N37893  0.22 TC=0,0 
C_C12         0 N37931  330u  TC=0,0 
R_R8         N37973 N37931  3.6k TC=0,0 
R_R7         N49005 N37799  180 TC=0,0 
C_C10         0 N37893  100u  TC=0,0 
C_C11         N44823 0  1.5n  TC=0,0 
L_L3         N37799 N37819  170u  
C_C22         0 N37893  100n  TC=0,0 
X_U6          N37973 N49005 0 N37799 N37819 0 N44823 N37893 MC33063A-Q1_TRANS
C_C24         0 N44923  100u  TC=0,0 
C_C25         0 N44923  100n  TC=0,0 
L_L4         N37931 N44923  1uH  
R_Rlidar         N44923 0  10 TC=0,0 
D_D4         N87291 N87283 Dbreak 
V_V2         N87447 0  
+PULSE 0 3.7 0.5 500n 500n 0.25 5
R_R4         N87291 N37893  100k TC=0,0 
S_U2         N87291 0 N87619 0 _U2
.MODEL      _U2 VSWITCH Roff=1000000000 Ron=0.01 VH=0 VT=2VDC TD=0
R_R2         N87157 N87005  100k TC=0,0 
C_C2         N87157 N87005  100n  TC=0,0 
C_C1         N87283 N87157  1u  TC=0,0 
V_V1         N87005 0 3.7VDC
X_U5         N37893 N87157 N87005 ZXMD63P02X/ZTX
V_V3         N87619 0  
+PULSE 3.7 0 0.625 500n 500n 5 10
C_C3         N87311 N37893  2.2u  TC=0,0 
S_U1         N87283 0 N87447 0 _U1
.MODEL      _U1 VSWITCH Roff=100000000 Ron=0.01 VH=0 VT=2VDC TD=0
R_R1         N87283 N87005  10k TC=0,0 
R_R3         N87311 N87291  300k TC=0,0 
X_U7         N87157 N87311 0 ZXMD63N02X/ZTX
D_D5         N37819 N37931 Dbreak 
** Floating/unmodeled pin fixups **
R__UC0001   N37799  0   {1/GMIN}

**** RESUMING PowerBlock_Sim.cir ****
.END
