
**** 04/12/22 21:02:30 ******* PSpice 17.4.0 (Nov 2018) ******* ID# 0 ********

 ** Profile: "SCHEMATIC1-MCU_Power_Button"  [ c:\users\student\orcad_pcb\wcsa_orcad\mcu_powerbutton_simulation\mcu_power_button-pspic


 ****     CIRCUIT DESCRIPTION


******************************************************************************




** Creating circuit file "MCU_Power_Button.cir" 
** WARNING: THIS AUTOMATICALLY GENERATED FILE MAY BE OVERWRITTEN BY SUBSEQUENT SIMULATIONS

*Libraries: 
* Profile Libraries :
* Local Libraries :
.LIB "../../../mcu_power_button-pspicefiles/mcu_power_button.lib" 
* From [PSPICE NETLIST] section of C:\Users\student\AppData\Roaming\SPB_Data\cdssetup\OrCAD_PSpice\17.4.0\PSpice.ini file:
.lib "nom.lib" 

*Analysis directives: 
.TRAN  0 60 0 1m 
.OPTIONS ADVCONV
.PROBE64 V(*) I(*) W(*) D(*) NOISE(*) 
.INC "..\SCHEMATIC1.net" 



**** INCLUDING SCHEMATIC1.net ****
* source MCU_POWER_BUTTON
R_R6         N26477 N26381  100k TC=0,0 
M_M4         N26477 N26909 0 0 MbreakN           
M_M3         N72891 N26477 N26381 N26381 Mbreakp           
V_V6         N26909 0  
+PULSE 3.7 0 5.25 0 0 10 20
C_C4         N26477 N26381  100n  TC=0,0 
V_V4         N26381 0 3.7VDC
S_U3         N27558 0 N26737 0 _U3
.MODEL      _U3 VSWITCH Roff=100000000 Ron=0.01 VH=0 VT=2VDC TD=0
V_V5         N26737 0  
+PULSE 0 3.7 5 0 0 0.5 10
R_R7         0 N26909  1M TC=0,0 
R_R8         N29360 N71618  25k TC=0,0 
R_R10         N29360 N26909  330 TC=0,0 
V_V7         N71618 0 3.7VDC
R_R11         0 N72891  25k TC=0,0 
C_C3         N84009 N83795  2.2u  TC=0,0 
C_C1         N83981 N83839  1u  TC=0,0 
R_R4         N83989 N83795  100k TC=0,0 
S_U1         N83981 0 N84131 0 _U1
.MODEL      _U1 VSWITCH Roff=100000000 Ron=0.01 VH=0 VT=2VDC TD=0
S_U2         N83989 0 N84303 0 _U2
.MODEL      _U2 VSWITCH Roff=1000000000 Ron=0.01 VH=0 VT=2VDC TD=0
V_V1         N83757 0 3.7VDC
S_U4         0 N83981 N84407 0 _U4
.MODEL      _U4 VSWITCH Roff=100000000 Ron=0.01 VH=0 VT=2VDC TD=0
R_R3         N84009 N83989  300k TC=0,0 
X_M6         N83839 N84009 0 N83795 N83839 N83757 IRF7317 
V_V3         N84303 0  
+PULSE 3.7 0 5.25 0 0 10 20
R_R2         N83839 N83757  100k TC=0,0 
C_C2         N83839 N83757  100n  TC=0,0 
R_R1         N83981 N83757  10k TC=0,0 
V_V2         N84131 0  
+PULSE 0 3.7 5 0 0 0.5 20
V_V8         N84407 0  
+PULSE 0 3.7 15 0 0 3 20
D_D4         N83989 N83981 Dbreak 

**** RESUMING MCU_Power_Button.cir ****
.END

ERROR(ORPSIM-15141): Less than 2 connections at node N27558.
